Circuit: * C:\Users\triim\Desktop\CPE\ESE\PLL_wiz\PLL_Wizard_Python.asc

WARNING: Node N004 is floating.

WARNING: Less than two connections to node CONSIGNE.  This node is used by V1.
Direct Newton iteration for .op point succeeded.

t1_pll1: time=0.000500046 at 0.000500046
t2_pll1: time=0.000500546 at 0.000500546
frequency_pll: 10/(t2_pll1-t1_pll1)=1.99959e+007
t1_in: time=0.0005 at 0.0005
t2_in: time=0.0006 at 0.0006
frequency_in: 10/(t2_in-t1_in)=100000


Date: Tue May 30 15:56:50 2023
Total elapsed time: 2.241 seconds.

tnom = 27
temp = 27
method = modified trap
totiter = 950518
traniter = 950515
tranpoints = 468056
accept = 312237
rejected = 155819
matrix size = 13
fillins = 0
solver = Normal
Matrix Compiler1: 262 bytes object code size  0.2/0.1/[0.1]
Matrix Compiler2: 627 bytes object code size  0.1/0.2/[0.1]

